! File generated by DesignBuilder - 6.1.2.005 12/05/2020 - 9:08:55 AM
! Source file: C:\Users\Peter Ltons\Dropbox (Personal)\WincovER Calibration Windows\DB models\10x10_WincovER-ex-AERC_20200504_1-Simple Ground_100 slab,18.75EPS_8.6_HiInsShd.dsb
! This is the idf used to do an annual energy simulation for WincovER - the location is fixed as Adelaide - the building model is described in the WincovER manual
!
! manual edits by Rebecca:
! Extra diagnostic outputs added
! All unused schedules and constructions removed
! Walls renamed according to orientation
! Glazing system construction renamed
! frame added back
! Version changed to 8.5 then 9.1 to access updated complex glazing models
!
! Now a master idf file containing multiple EMS programs for shade operation
! EMS program to run is selected by editing EnergyManagementSystem:ProgramCallingManager object
!
! wincover_calc will set name of EMS program, set name of shaded fenestration and append shaded 
! fenestration objects
!
! This file may be the master idf or an idf generated by WincovER-Calc using the master idf as a template
! If this is a generated IDF from wincover_calc, 
!                             the program is set to: EMS_SHADE_CONTROL_PROGRAM
!                             the shaded fenestration is : WINCOVER_SHADED_CFS
! 

  Version,9.1;

  RunPeriod,
    Adelaide Annual (O1-O1:31-12),  !- Name
    1,                       !- Begin Month
    1,                       !- Begin Day of Month
    ,                        !- Begin Year
    12,                      !- End Month
    31,                      !- End Day of Month
    ,                        !- End Year
    ,                        !- Day of Week for Start Day
    No,                      !- Use Weather File Holidays and Special Days
    No,                      !- Use Weather File Daylight Saving Period
    Yes,                     !- Apply Weekend Holiday Rule
    Yes,                     !- Use Weather File Rain Indicators
    Yes,                     !- Use Weather File Snow Indicators
    ;                        !- Treat Weather as Actual

  RunPeriodControl:DaylightSavingTime,
    Last Sunday in October,  !- Start Date
    Last Sunday in March;    !- End Date

! Hourly weather file: C:\ProgramData\DesignBuilder\Weather Data\AUS_ADELAIDE_IWEC.epw

  Site:Location,
    Adelaide (O1-O1:31-12)  (01-01:31-12),  !- Name
    -34.95,                  !- Latitude {deg}
    138.53,                  !- Longitude {deg}
    9.5,                     !- Time Zone {hr}
    8;                       !- Elevation {m}

  Site:GroundTemperature:BuildingSurface,19.5,18.4,16.8,15.6,13.5,12.8,13,14.1,15.8,17.6,19.1,19.8;

  Site:GroundTemperature:Deep,19.5,18.4,16.8,15.6,13.5,12.8,13,14.1,15.8,17.8,19.1,19.8;

  Site:GroundTemperature:Shallow,19.5,18.4,16.8,15.6,13.5,12.8,13,14.1,15.8,17.6,19.1,19.8;

  Site:GroundTemperature:FCfactorMethod,20.06,18.10,15.87,14.23,11.98,11.56,12.40,14.32,16.79,19.04,20.60,20.97;

  Site:GroundReflectance,0.2,0.2,0.2,0.2,0.2,0.2,0.2,0.2,0.2,0.2,0.2,0.2;

  Site:GroundReflectance:SnowModifier,
    2.0,                     !- Ground Reflected Solar Modifier
    2.0;                     !- Daylighting Ground Reflected Solar Modifier

  SimulationControl,
    Yes,                     !- Do Zone Sizing Calculation
    Yes,                     !- Do System Sizing Calculation
    No,                      !- Do Plant Sizing Calculation
    No,                      !- Run Simulation for Sizing Periods
    Yes;                     !- Run Simulation for Weather File Run Periods

  SizingPeriod:DesignDay,
    Summer Design Day in Adelaide (O1-O1:31-12) Jan,  !- Name
    1,                       !- Month
    15,                      !- Day of Month
    SummerDesignDay,         !- Day Type
    39.8,                    !- Maximum Dry-Bulb Temperature {C}
    15.8,                    !- Daily Dry-Bulb Temperature Range {deltaC}
    ,                        !- Dry-Bulb Temperature Range Modifier Type
    ,                        !- Dry-Bulb Temperature Range Modifier Day Schedule Name
    WetBulb,                 !- Humidity Condition Type
    19.3,                    !- Wetbulb or DewPoint at Maximum Dry-Bulb {C}
    ,                        !- Humidity Condition Day Schedule Name
    ,                        !- Humidity Ratio at Maximum Dry-Bulb {kgWater/kgDryAir}
    ,                        !- Enthalpy at Maximum Dry-Bulb {J/kg}
    ,                        !- Daily Wet-Bulb Temperature Range {deltaC}
    101228.9,                !- Barometric Pressure {Pa}
    0,                       !- Wind Speed {m/s}
    0,                       !- Wind Direction {deg}
    No,                      !- Rain Indicator
    No,                      !- Snow Indicator
    Yes,                     !- Daylight Saving Time Indicator
    ASHRAEClearSky,          !- Solar Model Indicator
    ,                        !- Beam Solar Day Schedule Name
    ,                        !- Diffuse Solar Day Schedule Name
    ,                        !- ASHRAE Clear Sky Optical Depth for Beam Irradiance (taub) {dimensionless}
    ,                        !- ASHRAE Clear Sky Optical Depth for Diffuse Irradiance (taud) {dimensionless}
    0.98;                    !- Sky Clearness

  SizingPeriod:DesignDay,
    Summer Design Day in Adelaide (O1-O1:31-12) Feb,  !- Name
    2,                       !- Month
    15,                      !- Day of Month
    SummerDesignDay,         !- Day Type
    38.2,                    !- Maximum Dry-Bulb Temperature {C}
    15.1,                    !- Daily Dry-Bulb Temperature Range {deltaC}
    ,                        !- Dry-Bulb Temperature Range Modifier Type
    ,                        !- Dry-Bulb Temperature Range Modifier Day Schedule Name
    WetBulb,                 !- Humidity Condition Type
    19.9,                    !- Wetbulb or DewPoint at Maximum Dry-Bulb {C}
    ,                        !- Humidity Condition Day Schedule Name
    ,                        !- Humidity Ratio at Maximum Dry-Bulb {kgWater/kgDryAir}
    ,                        !- Enthalpy at Maximum Dry-Bulb {J/kg}
    ,                        !- Daily Wet-Bulb Temperature Range {deltaC}
    101228.9,                !- Barometric Pressure {Pa}
    0,                       !- Wind Speed {m/s}
    0,                       !- Wind Direction {deg}
    No,                      !- Rain Indicator
    No,                      !- Snow Indicator
    Yes,                     !- Daylight Saving Time Indicator
    ASHRAEClearSky,          !- Solar Model Indicator
    ,                        !- Beam Solar Day Schedule Name
    ,                        !- Diffuse Solar Day Schedule Name
    ,                        !- ASHRAE Clear Sky Optical Depth for Beam Irradiance (taub) {dimensionless}
    ,                        !- ASHRAE Clear Sky Optical Depth for Diffuse Irradiance (taud) {dimensionless}
    0.98;                    !- Sky Clearness

  SizingPeriod:DesignDay,
    Summer Design Day in Adelaide (O1-O1:31-12) Mar,  !- Name
    3,                       !- Month
    15,                      !- Day of Month
    SummerDesignDay,         !- Day Type
    36.8,                    !- Maximum Dry-Bulb Temperature {C}
    14.9,                    !- Daily Dry-Bulb Temperature Range {deltaC}
    ,                        !- Dry-Bulb Temperature Range Modifier Type
    ,                        !- Dry-Bulb Temperature Range Modifier Day Schedule Name
    WetBulb,                 !- Humidity Condition Type
    18,                      !- Wetbulb or DewPoint at Maximum Dry-Bulb {C}
    ,                        !- Humidity Condition Day Schedule Name
    ,                        !- Humidity Ratio at Maximum Dry-Bulb {kgWater/kgDryAir}
    ,                        !- Enthalpy at Maximum Dry-Bulb {J/kg}
    ,                        !- Daily Wet-Bulb Temperature Range {deltaC}
    101228.9,                !- Barometric Pressure {Pa}
    0,                       !- Wind Speed {m/s}
    0,                       !- Wind Direction {deg}
    No,                      !- Rain Indicator
    No,                      !- Snow Indicator
    Yes,                     !- Daylight Saving Time Indicator
    ASHRAEClearSky,          !- Solar Model Indicator
    ,                        !- Beam Solar Day Schedule Name
    ,                        !- Diffuse Solar Day Schedule Name
    ,                        !- ASHRAE Clear Sky Optical Depth for Beam Irradiance (taub) {dimensionless}
    ,                        !- ASHRAE Clear Sky Optical Depth for Diffuse Irradiance (taud) {dimensionless}
    0.98;                    !- Sky Clearness

  SizingPeriod:DesignDay,
    Winter Design Day in Adelaide (O1-O1:31-12),  !- Name
    7,                       !- Month
    15,                      !- Day of Month
    WinterDesignDay,         !- Day Type
    3.9,                     !- Maximum Dry-Bulb Temperature {C}
    0,                       !- Daily Dry-Bulb Temperature Range {deltaC}
    ,                        !- Dry-Bulb Temperature Range Modifier Type
    ,                        !- Dry-Bulb Temperature Range Modifier Day Schedule Name
    WetBulb,                 !- Humidity Condition Type
    3.9,                     !- Wetbulb or DewPoint at Maximum Dry-Bulb {C}
    ,                        !- Humidity Condition Day Schedule Name
    ,                        !- Humidity Ratio at Maximum Dry-Bulb {kgWater/kgDryAir}
    ,                        !- Enthalpy at Maximum Dry-Bulb {J/kg}
    ,                        !- Daily Wet-Bulb Temperature Range {deltaC}
    101228.9,                !- Barometric Pressure {Pa}
    12.5,                    !- Wind Speed {m/s}
    0,                       !- Wind Direction {deg}
    No,                      !- Rain Indicator
    No,                      !- Snow Indicator
    No,                      !- Daylight Saving Time Indicator
    ,                        !- Solar Model Indicator
    ,                        !- Beam Solar Day Schedule Name
    ,                        !- Diffuse Solar Day Schedule Name
    ,                        !- ASHRAE Clear Sky Optical Depth for Beam Irradiance (taub) {dimensionless}
    ,                        !- ASHRAE Clear Sky Optical Depth for Diffuse Irradiance (taud) {dimensionless}
    0;                       !- Sky Clearness

  Timestep,6;

  ConvergenceLimits,
    1,                       !- Minimum System Timestep {minutes}
    25;                      !- Maximum HVAC Iterations

! ----------------------for building -----------------------------------------------------

  Output:Diagnostics,
    DisplayAdvancedReportVariables;  !- Key 1

  Output:Diagnostics,
    DisplayExtraWarnings;    !- Key 1

  !Output:EnergyManagementSystem,
  !  verbose,                 !- Actuator Availability Dictionary Reporting
  !  verbose,                 !- Internal Variable Availability Dictionary Reporting
  !  verbose;                 !- EMS Runtime Language Debug Output Level - watch out this can get HUGE and crash EP

! -----------  program calling manager calls individual programs at specified time in simulation ------------
! -----------  need one program per zone to set actuators on all windows in zone ----------------------------

  EnergyManagementSystem:ProgramCallingManager,
    WINCOVER Complex Glazing Shade Automation,  !- Name
    BeginTimestepBeforePredictor,  !- EnergyPlus Model Calling Point
    EMS_SHADE_CONTROL_PROGRAM;  !- EMS Program Name - the template value is replaced by WincovER-Calc

  ScheduleTypeLimits,
    Any Number;              !- Name

  ScheduleTypeLimits,
    Fraction,                !- Name
    0.0,                     !- Lower Limit Value
    1.0,                     !- Upper Limit Value
    CONTINUOUS;              !- Numeric Type

  ScheduleTypeLimits,
    Temperature,             !- Name
    -60,                     !- Lower Limit Value
    200,                     !- Upper Limit Value
    CONTINUOUS;              !- Numeric Type

  ScheduleTypeLimits,
    Control Type,            !- Name
    0,                       !- Lower Limit Value
    4,                       !- Upper Limit Value
    DISCRETE;                !- Numeric Type

  ScheduleTypeLimits,
    On/Off,                  !- Name
    0,                       !- Lower Limit Value
    1,                       !- Upper Limit Value
    DISCRETE;                !- Numeric Type

  Schedule:Compact,
    On,                      !- Name
    Any Number,              !- Schedule Type Limits Name
    Through: 12/31,          !- Field 1
    For: AllDays,            !- Field 2
    Until: 24:00,1;          !- Field 3

  Schedule:Compact,
    Work efficiency,         !- Name
    Any Number,              !- Schedule Type Limits Name
    Through: 12/31,          !- Field 1
    For: AllDays,            !- Field 2
    Until: 24:00,0;          !- Field 3

! -------------------- Control type schedules (for heating & cooling) ----------------------

  Schedule:Day:Hourly,
    Summer Control Type Day Sch,  !- Name
    Control Type,            !- Schedule Type Limits Name
    4,                       !- Hour 1
    4,                       !- Hour 2
    4,                       !- Hour 3
    4,                       !- Hour 4
    4,                       !- Hour 5
    4,                       !- Hour 6
    4,                       !- Hour 7
    4,                       !- Hour 8
    4,                       !- Hour 9
    4,                       !- Hour 10
    4,                       !- Hour 11
    4,                       !- Hour 12
    4,                       !- Hour 13
    4,                       !- Hour 14
    4,                       !- Hour 15
    4,                       !- Hour 16
    4,                       !- Hour 17
    4,                       !- Hour 18
    4,                       !- Hour 19
    4,                       !- Hour 20
    4,                       !- Hour 21
    4,                       !- Hour 22
    4,                       !- Hour 23
    4;                       !- Hour 24

  Schedule:Day:Hourly,
    Winter Control Type Day Sch,  !- Name
    Control Type,            !- Schedule Type Limits Name
    4,                       !- Hour 1
    4,                       !- Hour 2
    4,                       !- Hour 3
    4,                       !- Hour 4
    4,                       !- Hour 5
    4,                       !- Hour 6
    4,                       !- Hour 7
    4,                       !- Hour 8
    4,                       !- Hour 9
    4,                       !- Hour 10
    4,                       !- Hour 11
    4,                       !- Hour 12
    4,                       !- Hour 13
    4,                       !- Hour 14
    4,                       !- Hour 15
    4,                       !- Hour 16
    4,                       !- Hour 17
    4,                       !- Hour 18
    4,                       !- Hour 19
    4,                       !- Hour 20
    4,                       !- Hour 21
    4,                       !- Hour 22
    4,                       !- Hour 23
    4;                       !- Hour 24

  Schedule:Week:Daily,
    Summer Control Type Week Sch,  !- Name
    Summer Control Type Day Sch,  !- Sunday Schedule:Day Name
    Summer Control Type Day Sch,  !- Monday Schedule:Day Name
    Summer Control Type Day Sch,  !- Tuesday Schedule:Day Name
    Summer Control Type Day Sch,  !- Wednesday Schedule:Day Name
    Summer Control Type Day Sch,  !- Thursday Schedule:Day Name
    Summer Control Type Day Sch,  !- Friday Schedule:Day Name
    Summer Control Type Day Sch,  !- Saturday Schedule:Day Name
    Summer Control Type Day Sch,  !- Holiday Schedule:Day Name
    Summer Control Type Day Sch,  !- SummerDesignDay Schedule:Day Name
    Summer Control Type Day Sch,  !- WinterDesignDay Schedule:Day Name
    Summer Control Type Day Sch,  !- CustomDay1 Schedule:Day Name
    Summer Control Type Day Sch;  !- CustomDay2 Schedule:Day Name

  Schedule:Week:Daily,
    Winter Control Type Week Sch,  !- Name
    Winter Control Type Day Sch,  !- Sunday Schedule:Day Name
    Winter Control Type Day Sch,  !- Monday Schedule:Day Name
    Winter Control Type Day Sch,  !- Tuesday Schedule:Day Name
    Winter Control Type Day Sch,  !- Wednesday Schedule:Day Name
    Winter Control Type Day Sch,  !- Thursday Schedule:Day Name
    Winter Control Type Day Sch,  !- Friday Schedule:Day Name
    Winter Control Type Day Sch,  !- Saturday Schedule:Day Name
    Winter Control Type Day Sch,  !- Holiday Schedule:Day Name
    Winter Control Type Day Sch,  !- SummerDesignDay Schedule:Day Name
    Winter Control Type Day Sch,  !- WinterDesignDay Schedule:Day Name
    Winter Control Type Day Sch,  !- CustomDay1 Schedule:Day Name
    Winter Control Type Day Sch;  !- CustomDay2 Schedule:Day Name

  Material:NoMass,
    LinearBridgingLayer,     !- Name
    Rough,                   !- Roughness
    0.6267,                  !- Thermal Resistance {m2-K/W}
    0.0100000,               !- Thermal Absorptance
    0.0100000,               !- Solar Absorptance
    0.0100000;               !- Visible Absorptance

  Schedule:Compact,
    AirVelocitySchedule,     !- Name
    Any Number,              !- Schedule Type Limits Name
    Through: 12/31,          !- Field 1
    For: AllDays,            !- Field 2
    Until: 24:00,.137;       !- Field 3

! Schedule: On 24/7

  Schedule:Compact,
    On 24/7,                 !- Name
    Any Number,              !- Schedule Type Limits Name
    Through: 12/31,          !- Field 1
    For: AllDays,            !- Field 2
    Until: 24:00,1;          !- Field 3


! EPS Expanded Polystyrene (Lightweight)- thickness 0.0188

  Material,
    EPS Expanded Polystyrene (Lightweight)_O.O188,  !- Name
    Rough,                   !- Roughness
    .0188,                   !- Thickness {m}
    0.046,                   !- Conductivity {W/m-K}
    10,                      !- Density {kg/m3}
    1400,                    !- Specific Heat {J/kg-K}
    0.9,                     !- Thermal Absorptance
    0.6,                     !- Solar Absorptance
    0.6;                     !- Visible Absorptance

! Cast Concrete- thickness 0.1

  Material,
    Cast Concrete_O.1,       !- Name
    Rough,                   !- Roughness
    .1,                      !- Thickness {m}
    1.13,                    !- Conductivity {W/m-K}
    2000,                    !- Density {kg/m3}
    1000,                    !- Specific Heat {J/kg-K}
    0.9,                     !- Thermal Absorptance
    0.6,                     !- Solar Absorptance
    0.6;                     !- Visible Absorptance

! Steel- thickness 0.001

  Material,
    Steel_O.OO1,             !- Name
    Rough,                   !- Roughness
    .001,                    !- Thickness {m}
    50,                      !- Conductivity {W/m-K}
    7800,                    !- Density {kg/m3}
    450,                     !- Specific Heat {J/kg-K}
    0.3,                     !- Thermal Absorptance
    0.3,                     !- Solar Absorptance
    0.3;                     !- Visible Absorptance

! MW Glass Wool (rolls)- thickness 0.05

  Material,
    MW Glass Wool (rolls)_O.O5,  !- Name
    Rough,                   !- Roughness
    .05,                     !- Thickness {m}
    0.04,                    !- Conductivity {W/m-K}
    12,                      !- Density {kg/m3}
    840,                     !- Specific Heat {J/kg-K}
    0.9,                     !- Thermal Absorptance
    0.6,                     !- Solar Absorptance
    0.6;                     !- Visible Absorptance

! Metals - aluminium- thickness 0.001

  Material,
    Metals - aluminium_O.OO1,!- Name
    Rough,                   !- Roughness
    .001,                    !- Thickness {m}
    230,                     !- Conductivity {W/m-K}
    2700,                    !- Density {kg/m3}
    880,                     !- Specific Heat {J/kg-K}
    0.9,                     !- Thermal Absorptance
    0.6,                     !- Solar Absorptance
    0.6;                     !- Visible Absorptance

! Glass Fibre Slab- thickness 0.121

  Material,
    Glass Fibre Slab_O.121,  !- Name
    Rough,                   !- Roughness
    .121,                    !- Thickness {m}
    0.035,                   !- Conductivity {W/m-K}
    25,                      !- Density {kg/m3}
    1000,                    !- Specific Heat {J/kg-K}
    0.9,                     !- Thermal Absorptance
    0.6,                     !- Solar Absorptance
    0.6;                     !- Visible Absorptance

! Plasterboard- thickness 0.013

  Material,
    Plasterboard_O.O13,      !- Name
    Rough,                   !- Roughness
    .013,                    !- Thickness {m}
    0.25,                    !- Conductivity {W/m-K}
    2800,                    !- Density {kg/m3}
    896,                     !- Specific Heat {J/kg-K}
    0.9,                     !- Thermal Absorptance
    0.5,                     !- Solar Absorptance
    0.5;                     !- Visible Absorptance

! Brickwork Outer- thickness 0.11

  Material,
    Brickwork Outer_O.11,    !- Name
    Rough,                   !- Roughness
    .11,                     !- Thickness {m}
    0.84,                    !- Conductivity {W/m-K}
    1700,                    !- Density {kg/m3}
    800,                     !- Specific Heat {J/kg-K}
    0.9,                     !- Thermal Absorptance
    0.7,                     !- Solar Absorptance
    0.7;                     !- Visible Absorptance

! Glass fibre/wool - fibre slab- thickness 0.08

  Material,
    Glass fibre/wool - fibre slab_O.O8,  !- Name
    Rough,                   !- Roughness
    .08,                     !- Thickness {m}
    0.035,                   !- Conductivity {W/m-K}
    25,                      !- Density {kg/m3}
    1000,                    !- Specific Heat {J/kg-K}
    0.9,                     !- Thermal Absorptance
    0.6,                     !- Solar Absorptance
    0.6;                     !- Visible Absorptance

! Gypsum Plasterboard- thickness 0.01

  Material,
    Gypsum Plasterboard_O.O1,!- Name
    Rough,                   !- Roughness
    .01,                     !- Thickness {m}
    0.25,                    !- Conductivity {W/m-K}
    900,                     !- Density {kg/m3}
    1000,                    !- Specific Heat {J/kg-K}
    0.9,                     !- Thermal Absorptance
    0.5,                     !- Solar Absorptance
    0.5;                     !- Visible Absorptance

! Concrete slab-on-ground, 100mm, 18.75mm EPS underneath

  Construction,
    Concrete slab-on-ground 1OOmm 18.75mm EPS underneath,  !- Name
    EPS Expanded Polystyrene (Lightweight)_O.O188,  !- Outside Layer
    Cast Concrete_O.1;       !- Layer 2

! Special material to represent an R-value for the next construction

  Material:NoMass,
    3_RVAL_4,                !- Name
    Rough,                   !- Roughness
    .21,                     !- Thermal Resistance {m2-K/W}
    0.9,                     !- Thermal Absorptance
    0.7,                     !- Solar Absorptance
    0.7;                     !- Visible Absorptance

! Project flat roof, R5.1, NCC 2019 Zone 5

  Construction,
    Project flat roof R5.1 NCC 2O19 Zone 5,  !- Name
    Steel_O.OO1,             !- Outside Layer
    MW Glass Wool (rolls)_O.O5,  !- Layer 2
    Metals - aluminium_O.OO1,!- Layer 3
    3_RVAL_4,                !- Layer 4
    Glass Fibre Slab_O.121,  !- Layer 5
    Plasterboard_O.O13;      !- Layer 6

! Special material to represent an R-value for the next construction

  Material:NoMass,
    5_RVAL_2,                !- Name
    Rough,                   !- Roughness
    .18,                     !- Thermal Resistance {m2-K/W}
    0.9,                     !- Thermal Absorptance
    0.7,                     !- Solar Absorptance
    0.7;                     !- Visible Absorptance

! Project wall, R2.8, NCC 2019 Zone 5

  Construction,
    Project wall R2.8 NCC 2O19 Zone 5,  !- Name
    Brickwork Outer_O.11,    !- Outside Layer
    5_RVAL_2,                !- Layer 2
    Glass fibre/wool - fibre slab_O.O8,  !- Layer 3
    Gypsum Plasterboard_O.O1;!- Layer 4

  HeatBalanceAlgorithm,ConductionTransferFunction,2000,0.00000001,1000;

  ShadowCalculation,
    AverageOverDaysInFrequency,  !- Calculation Method
    20,                      !- Calculation Frequency
    15000,                   !- Maximum Figures in Shadow Overlap Calculations
    SutherlandHodgman,       !- Polygon Clipping Algorithm
    SimpleSkyDiffuseModeling;!- Sky Diffuse Modeling Algorithm

  SurfaceConvectionAlgorithm:Inside,TARP;

  SurfaceConvectionAlgorithm:Outside,DOE-2;

  ZoneCapacitanceMultiplier:ResearchSpecial,
    Multiplier,              !- Name
    ,                        !- Zone or ZoneList Name
    1,                       !- Temperature Capacity Multiplier
    1.0,                     !- Humidity Capacity Multiplier
    1.0,                     !- Carbon Dioxide Capacity Multiplier
    1.0;                     !- Generic Contaminant Capacity Multiplier

  Building,
    Building,                !- Name
    0,                       !- North Axis {deg}
    Suburbs,                 !- Terrain
    .04,                     !- Loads Convergence Tolerance Value
    .4,                      !- Temperature Convergence Tolerance Value {deltaC}
    FullExterior,            !- Solar Distribution
    25,                      !- Maximum Number of Warmup Days
    6;                       !- Minimum Number of Warmup Days

  GlobalGeometryRules,
    LowerLeftCorner,         !- Starting Vertex Position
    CounterClockWise,        !- Vertex Entry Direction
    Relative;                !- Coordinate System

! Block 1 - Zone 1

  Zone,
    Block1:Zone1,            !- Name
    0,                       !- Direction of Relative North {deg}
    0,                       !- X Origin {m}
    0,                       !- Y Origin {m}
    0,                       !- Z Origin {m}
    1,                       !- Type
    1,                       !- Multiplier
    ,                        !- Ceiling Height {m}
    228.0063,                !- Volume {m3}
    91.2025,                 !- Floor Area {m2}
    TARP,                    !- Zone Inside Convection Algorithm
    ,                        !- Zone Outside Convection Algorithm
    Yes;                     !- Part of Total Floor Area

  PEOPLE,
    People Block1:Zone1,     !- Name
    Block1:Zone1,            !- Zone or ZoneList Name
    On 24/7,                 !- Number of People Schedule Name
    Area/Person,             !- Number of People Calculation Method
    ,                        !- Number of People
    ,                        !- People per Zone Floor Area {person/m2}
    10,                      !- Zone Floor Area per Person {m2/person}
    .3,                      !- Fraction Radiant
    AutoCalculate,           !- Sensible Heat Fraction
    Activity Schedule 42,    !- Activity Level Schedule Name
    .0000000382,             !- Carbon Dioxide Generation Rate {m3/s-W}
    No,                      !- Enable ASHRAE 55 Comfort Warnings
    ZoneAveraged,            !- Mean Radiant Temperature Calculation Type
    ,                        !- Surface Name/Angle Factor List Name
    Work efficiency,         !- Work Efficiency Schedule Name
    ClothingInsulationSchedule,  !- Clothing Insulation Calculation Method
    ,                        !- Clothing Insulation Calculation Method Schedule Name
    Clothing Schedule 42,    !- Clothing Insulation Schedule Name
    AirVelocitySchedule,     !- Air Velocity Schedule Name
    Fanger;                  !- Thermal Comfort Model 1 Type

  Schedule:Compact,
    Activity Schedule 42,    !- Name
    Any Number,              !- Schedule Type Limits Name
    Through: 12/31,          !- Field 1
    For: AllDays,            !- Field 2
    Until: 24:00,117;        !- Field 3

  Schedule:Compact,
    Clothing Schedule 42,    !- Name
    Any Number,              !- Schedule Type Limits Name
    Through: 4/1,            !- Field 1
    For: AllDays,            !- Field 2
    Until: 24:00,.5,         !- Field 3
    Through: 9/30,           !- Field 5
    For: AllDays,            !- Field 6
    Until: 24:00,1,          !- Field 7
    Through: 12/31,          !- Field 9
    For: AllDays,            !- Field 10
    Until: 24:00,.5;         !- Field 11

  ZoneInfiltration:DesignFlowRate,
    Block1:Zone1 Infiltration,  !- Name
    Block1:Zone1,            !- Zone or ZoneList Name
    On 24/7,                 !- Schedule Name
    Flow/zone,               !- Design Flow Rate Calculation Method
    .044335,                 !- Design Flow Rate {m3/s}
    ,                        !- Flow per Zone Floor Area {m3/s-m2}
    ,                        !- Flow per Exterior Surface Area {m3/s-m2}
    ,                        !- Air Changes per Hour {1/hr}
    1,                       !- Constant Term Coefficient
    0,                       !- Temperature Term Coefficient
    0,                       !- Velocity Term Coefficient
    0;                       !- Velocity Squared Term Coefficient

  ZoneVentilation:DesignFlowRate,
    Block1:Zone1 Mech Vent,  !- Name
    Block1:Zone1,            !- Zone or ZoneList Name
    On 24/7,                 !- Schedule Name
    Flow/zone,               !- Design Flow Rate Calculation Method
    .01368,                  !- Design Flow Rate {m3/s}
    ,                        !- Flow Rate per Zone Floor Area {m3/s-m2}
    ,                        !- Flow Rate per Person {m3/s-person}
    ,                        !- Air Changes per Hour {1/hr}
    Exhaust,                 !- Ventilation Type
    0,                       !- Fan Pressure Rise {Pa}
    1,                       !- Fan Total Efficiency
    1,                       !- Constant Term Coefficient
    0,                       !- Temperature Term Coefficient
    0,                       !- Velocity Term Coefficient